%chk=0-2-Ligand-M.chk
%mem=16GB
%nprocshared=16
# opt pbe1pbe/genecp em=gd3bj 

0-2-Ligand-M.xyz

0 1
O          -1.86767426     -3.47186312      2.05847073
C          -1.11782404     -2.69875757      1.67169107
Rh          0.04100264     -1.41643126      1.04641467
P           1.71361992     -0.08653128      0.35777203
N           2.73051788     -0.79097026     -0.80497427
C           3.93104267     -0.34580929     -1.30751948
C           4.32635285     -1.18861272     -2.29917801
C           3.33282282     -2.19115337     -2.42627636
C           2.37260882     -1.92156016     -1.50356090
N           2.77068124      0.36579483      1.61053738
C           3.72047381      1.36158173      1.64871513
C           4.29091116      1.37349095      2.88309882
C           3.67331556      0.35255965      3.64654443
C           2.74937972     -0.24171018      2.84673154
N           1.55907773      1.46242072     -0.36632083
C           1.49925946      1.73357368     -1.71236047
C           1.09242457      3.02059525     -1.88338047
C           0.86303853      3.56364970     -0.59722861
C           1.13928852      2.58570333      0.30755248
P          -1.57536758      0.10280369      0.73985418
N          -1.53739779      1.40338884      1.82924420
C          -2.38118631      2.47548943      1.99860457
C          -1.97532551      3.18004782      3.08913675
C          -0.84913014      2.51341347      3.63328729
C          -0.61099209      1.42950101      2.84894189
N          -1.54714542      0.80158176     -0.81350757
C          -1.08236086      0.01985014     -1.85045880
C          -1.32725016      0.65626738     -3.02648537
C          -1.96264735      1.88117382     -2.70922291
C          -2.09257195      1.93861790     -1.35554785
N          -3.25127639     -0.23060803      0.84082709
C          -3.88043746     -0.50227137      2.03445976
C          -5.09670111     -1.05220717      1.77400560
C          -5.21554595     -1.15876658      0.36679477
C          -4.06687809     -0.67154749     -0.17555663
H           1.11974356     -2.47754294      1.25882686
H           4.41262686      0.52625208     -0.91184345
H           5.22798954     -1.11332237     -2.87476724
H           3.34279022     -3.00840610     -3.11979722
H           1.46225187     -2.44400720     -1.25409095
H           3.89891940      1.99942036      0.80515518
H           5.06689469      2.03405343      3.21675348
H           3.89408872      0.10084127      4.66476631
H           2.07260260     -1.06018374      3.03590487
H           1.76958161      0.99428008     -2.44072214
H           0.97306486      3.52927092     -2.81908130
H           0.53907754      4.56117728     -0.37473908
H           1.11046050      2.60804685      1.38043591
H          -3.21798931      2.63521136      1.34745479
H          -2.42679938      4.07390277      3.47226360
H          -0.29655223      2.80708084      4.50367841
H           0.12441296      0.64163296      2.93284204
H          -0.62968444     -0.94087358     -1.64252596
H          -1.08078588      0.30413413     -4.00848944
H          -2.27914788      2.62929161     -3.40878449
H          -2.49713876      2.71388881     -0.73741876
H          -3.41004890     -0.25994022      2.96941578
H          -5.83072963     -1.34717236      2.49750134
H          -6.05762160     -1.54756668     -0.17105463
H          -3.77164430     -0.57768198     -1.20318594

C O N H P 0
6-31G**
****
Rh 0
SDD
****

Rh 0
SDD


