18
 energy: -19.344560331566 gnorm: 0.001743204717 xtb: 6.6.0 (8843059)
C           -2.62907863180577        0.79926955348825        1.02606449420877
C           -1.35113068933096        0.79595808319038        0.71386547088897
C           -0.83284283608036        0.37573474516020       -0.62537853104331
C           -0.02523070874961       -0.92292868825668       -0.53921581797546
C            1.28947720649109       -0.76293027556221        0.21716243972299
C            2.32012289031719        0.00625837799864       -0.59422752057286
H           -3.38112113067787        0.51413963779761        0.29995453661439
H           -2.99277558356662        1.08999230879817        2.00365834086917
H           -0.59929711343777        1.08365736761902        1.44207007176033
H           -1.67860221431255        0.21693349268766       -1.29738784146411
H           -0.19829344657769        1.16220723743804       -1.04065730690009
H            0.19673688448357       -1.26656435209121       -1.55110760539498
H           -0.63959688431403       -1.67698446105098       -0.04463042318199
H            1.11122245527922       -0.24396147143194        1.15889393406836
H            1.68883880756458       -1.75226208635599        0.44082033977671
H            1.94190831469316        0.99667700031074       -0.84596011237249
H            3.24150655322546        0.11473055598270       -0.02380741119604
H            2.53815612679902       -0.52992602572250       -1.51808605780817
